@<TRIPOS>MOLECULE

49 49 1
SMALL
USER_CHARGES
@<TRIPOS>ATOM
1	C1    -5.0176     1.6616     7.3076	C.3	1	LIG	0.0424
2	O1    -5.2955     1.1342     5.9980	O.3	1	LIG	-0.2673
3	C2    -4.2637     1.2783     5.1061	C.2	1	LIG	0.0256
4	C3    -3.1307     0.4411     5.1802	C.2	1	LIG	-0.0147
5	C4    -2.0784     0.5418     4.2419	C.2	1	LIG	-0.0517
6	C5    -0.8862    -0.3417     4.3448	C.3	1	LIG	0.0279
7	N1     0.2524     0.3678     4.8347	N.3	1	LIG	-0.2498
8	C6     0.4437     0.7281     6.1345	C.2	1	LIG	0.1815
9	O2    -0.4015     0.4529     7.0197	O.2	1	LIG	-0.2672
10	C7     1.6753     1.4318     6.5425	C.3	1	LIG	0.0212
11	C8     2.7684     0.4410     7.0262	C.3	1	LIG	-0.0447
12	C9     3.9193     1.1405     7.8021	C.3	1	LIG	-0.0493
13	C10     4.9933     0.1359     8.2995	C.3	1	LIG	-0.0350
14	C11     5.9518     0.7598     9.1980	C.2	1	LIG	-0.0874
15	C12     6.0913     0.4382    10.4972	C.2	1	LIG	-0.0867
16	C13     7.0762     1.0651    11.3783	C.3	1	LIG	-0.0290
17	C14     6.5704     1.1758    12.8431	C.3	1	LIG	-0.0593
18	C15     8.4196     0.2935    11.3143	C.3	1	LIG	-0.0593
19	C16    -2.1869     1.4996     3.2064	C.2	1	LIG	-0.0557
20	C17    -3.3197     2.3318     3.1177	C.2	1	LIG	-0.0217
21	C18    -4.3518     2.2336     4.0719	C.2	1	LIG	0.0239
22	O3    -5.4228     3.0639     3.9791	O.3	1	LIG	-0.2760
23	H1    -4.8692     0.8387     8.0068	H	1	LIG	0.0535
24	H2    -4.1159     2.2729     7.2693	H	1	LIG	0.0535
25	H3    -5.8571     2.2729     7.6388	H	1	LIG	0.0535
26	H4    -3.0672    -0.2984     5.9784	H	1	LIG	0.0654
27	H5    -1.1101    -1.0941     5.1011	H	1	LIG	0.0483
28	H6    -0.6268    -0.6480     3.3314	H	1	LIG	0.0483
29	H7     0.9916     0.6403     4.2027	H	1	LIG	0.1313
30	H8     2.0497     1.9080     5.6363	H	1	LIG	0.0361
31	H9     1.3896     2.0408     7.4001	H	1	LIG	0.0361
32	H10     2.2798    -0.2195     7.7425	H	1	LIG	0.0271
33	H11     3.2203     0.0281     6.1243	H	1	LIG	0.0271
34	H12     4.4206     1.7882     7.0829	H	1	LIG	0.0270
35	H13     3.4666     1.5675     8.6970	H	1	LIG	0.0270
36	H14     4.4834    -0.6124     8.9064	H	1	LIG	0.0309
37	H15     5.5781    -0.1718     7.4326	H	1	LIG	0.0309
38	H16     6.6313     1.5444     8.8654	H	1	LIG	0.0572
39	H17     5.4024    -0.3347    10.8380	H	1	LIG	0.0575
40	H18     7.1911     2.0703    10.9727	H	1	LIG	0.0340
41	H19     6.4282     0.1766    13.2549	H	1	LIG	0.0236
42	H20     7.3053     1.7142    13.4416	H	1	LIG	0.0236
43	H21     5.6228     1.7142    12.8606	H	1	LIG	0.0236
44	H22     8.7712     0.0915    12.3261	H	1	LIG	0.0236
45	H23     8.2727    -0.6485    10.7859	H	1	LIG	0.0236
46	H24     9.1593     0.8950    10.7859	H	1	LIG	0.0236
47	H25    -1.3897     1.5973     2.4696	H	1	LIG	0.0626
48	H26    -3.3980     3.0556     2.3065	H	1	LIG	0.0651
49	H27    -5.7240     3.2973     4.8603	H	1	LIG	0.2183
@<TRIPOS>BOND
1	1	2	1
2	2	3	1
3	3	4	2
4	4	5	1
5	5	6	1
6	6	7	1
7	7	8	1
8	8	9	2
9	8	10	1
10	10	11	1
11	11	12	1
12	12	13	1
13	13	14	1
14	14	15	2
15	15	16	1
16	16	17	1
17	16	18	1
18	5	19	2
19	19	20	1
20	20	21	2
21	3	21	1
22	21	22	1
23	1	23	1
24	1	24	1
25	1	25	1
26	4	26	1
27	6	27	1
28	6	28	1
29	7	29	1
30	10	30	1
31	10	31	1
32	11	32	1
33	11	33	1
34	12	34	1
35	12	35	1
36	13	36	1
37	13	37	1
38	14	38	1
39	15	39	1
40	16	40	1
41	17	41	1
42	17	42	1
43	17	43	1
44	18	44	1
45	18	45	1
46	18	46	1
47	19	47	1
48	20	48	1
49	22	49	1
@<TRIPOS>SUBSTRUCTURE
1	LIG	1
